22

H  -3.65059   0.884046  2.420017 
O  -2.620647 -3.260236  2.607167 
O  -1.983647 -0.581044  3.468542 
H  -1.013797  1.302396  0.265767 
H  -1.790948 -3.737451  2.733244 
H  -1.356628  0.032266  3.883091 
O  -4.28134  -1.897402  0.030139 
O  -3.65793   0.589046  1.503026 
H  -5.074725 -1.33943   0.030596 
H  -4.330959 -2.488944 -0.738679 
H  -0.630221 -2.895913 -0.925791 
H  -4.571056  0.667827  1.179869 
H   0.530139 -2.61273   1.091448 
H   0.545506 -1.746414  2.375765 
H   0.105845  0.258112 -0.033449 
H  -2.18661  -1.258986  4.122393 
H  -2.132594 -3.120225 -1.382091 
O  -1.564162 -2.722247 -0.70695  
H  -3.329156 -3.911097  2.626237 
O  -0.821077  0.370537  0.281964 
O  -0.033408 -2.27892   1.818092 
Ca -2.203902 -1.34113 1.120058