48

H   0.105845  0.258112 -0.033449 
O   1.165025 -2.807017 -0.595507 
O  -0.033408 -2.27892   1.818092 
H  -1.356628  0.032266  3.883091 
O  -0.821077  0.370537  0.281964 
H   0.545506 -1.746414  2.375765 
H   1.825973 -3.430036 -0.910519 
H  -2.18661  -1.258986  4.122393 
H  -1.013797  1.302396  0.265767 
H   0.530139 -2.61273   1.091448 
H   1.498176 -1.893664 -0.76176  
O  -1.983647 -0.581044  3.468542 
C 1.157651 3.246818 0.473375
C 1.871258 2.130502 0.892256
C 1.581519 1.564415 2.139279
C 0.592774 2.122585 2.948499
C -0.129840 3.242521 2.511085
C 0.163743 3.798161 1.266423
N 2.889248 1.591315 0.056133
C 2.762203 0.444598 -0.635943
C 3.987074 -0.092650 -1.380285
C 3.536285 -0.766479 -2.696366
C 3.023156 0.238496 -3.733122
C 4.079454 1.302668 -4.046266
C 4.550109 2.008066 -2.770335
C 5.032087 0.995162 -1.722864
C 4.614476 -1.134677 -0.425470
Cl 2.461891 0.159132 2.671175
Cl 0.246641 1.481852 4.534481
O -1.093822 3.719743 3.326663
O 1.688205 -0.188289 -0.605777
H 3.758129 2.095652 -0.014617
H -1.422119 4.570674 3.015458
H -0.379825 4.670372 0.929434
H 1.385995 3.681393 -0.489075
H 4.403770 -1.292181 -3.100920
H 2.780293 -1.524559 -2.495539
H 2.737768 -0.290448 -4.642716
H 2.114382 0.719355 -3.356807
H 4.936511 0.826537 -4.530058
H 3.686935 2.031075 -4.755807
H 5.356445 2.705891 -2.995599
H 3.726708 2.607922 -2.370248
H 5.397621 1.492812 -0.819201
H 5.905774 0.472779 -2.117546
H 3.902579 -1.917080 -0.162838
H 5.468509 -1.602781 -0.912426
H 4.963755 -0.670958 0.496934
